-------------------------------------------------------
          Amber 20 PMEMD                              2020
          -------------------------------------------------------

  [-O]verwriting output

File Assignments:

 Here is the input file:

pressure equilibration
&cntrl
	ntb=2,ntp=1,pres0=1.0,tautp=2.0,
	ntc=2,ntf=2,ntt=3,gamma_ln=2.0,
	tempi=300.0,temp0=300.0,
	ntr=1,restraint_wt=1000.0,restraintmask="!@H=&:1",
	nstlim=30000,dt=0.001,
/

Note: ig = -1. Setting random seed to   387922 based on wallclock time in
      microseconds.

--------------------------------------------------------------------------------
   1.  RESOURCE   USE:
--------------------------------------------------------------------------------

 getting box info from netcdf restart file
 NATOM  =    2786 NTYPES =       6 NBONH =    1116 MBONA  =    1114
 NTHETH =    2787 MTHETA =     561 NPHIH =      18 MPHIA  =       0
 NHPARM =       0 NPARM  =       0 NNB   =    6152 NRES   =     560
 NBONA  =    1114 NTHETA =     561 NPHIA =       0 NUMBND =       8
 NUMANG =      13 NPTRA  =       1 NATYP =       9 NPHB   =       0
 IFBOX  =       1 NMXRS  =       5 IFCAP =       0 NEXTRA =       0
 NCOPY  =       0

     BOX TYPE: RECTILINEAR

--------------------------------------------------------------------------------
   2.  CONTROL  DATA  FOR  THE  RUN
--------------------------------------------------------------------------------

default_name

General flags:
     imin    =       0, nmropt  =       0

Nature and format of input:
     ntx     =       1, irest   =       0, ntrx    =       1

Nature and format of output:
     ntxo    =       2, ntpr    =      50, ntrx    =       1, ntwr    =   30000
     iwrap   =       0, ntwx    =       0, ntwv    =       0, ntwe    =       0
     ioutfm  =       1, ntwprt  =       0, idecomp =       0, rbornstat=      0

Potential function:
     ntf     =       2, ntb     =       2, igb     =       0, nsnb    =      25
     ipol    =       0, gbsa    =       0, iesp    =       0
     dielc   =   1.00000, cut     =   8.00000, intdiel =   1.00000

Frozen or restrained atoms:
     ibelly  =       0, ntr     =       1
     restraint_wt =1000.00000

Molecular dynamics:
     nstlim  =     30000, nscm    =         0, nrespa  =         1
     t       =   0.00000, dt      =   0.00100, vlimit  =  -1.00000

Langevin dynamics temperature regulation:
     ig      =  387922
     temp0   = 300.00000, tempi   = 300.00000, gamma_ln=   2.00000

Pressure regulation:
     ntp     =       1
     pres0   =   1.00000, comp    =  44.60000, taup    =   1.00000

SHAKE:
     ntc     =       2, jfastw  =       0
     tol     =   0.00001

Ewald parameters:
     verbose =       0, ew_type =       0, nbflag  =       1, use_pme =       1
     vdwmeth =       1, eedmeth =       1, netfrc  =       1
     Box X =   44.142   Box Y =   44.560   Box Z =   49.190
     Alpha =   90.000   Beta  =   90.000   Gamma =   90.000
     NFFT1 =   48       NFFT2 =   48       NFFT3 =   56
     Cutoff=    8.000   Tol   =0.100E-04
     Ewald Coefficient =  0.34864
     Interpolation order =    4

    LOADING THE CONSTRAINED ATOMS AS GROUPS

   5.  REFERENCE ATOM COORDINATES

  default_name
     Mask !@H=&:1; matches     1 atoms

--------------------------------------------------------------------------------
   3.  ATOMIC COORDINATES AND VELOCITIES
--------------------------------------------------------------------------------

default_name
 begin time read from input coords =   100.000 ps

 Number of triangulated 3-point waters found:        0

     Sum of charges from parm topology file =  -0.00000070
     Forcing neutrality...

--------------------------------------------------------------------------------
   4.  RESULTS
 NSTEP =        0   TIME(PS) =       0.000  TEMP(K) =   347.02  PRESS =  -279.6
 Etot   =      1053.6773  EKtot   =      2497.0120  EPtot      =     -1443.3347
 BOND   =       329.2354  ANGLE   =       916.8268  DIHED      =         0.0000
 1-4 NB =        -0.1039  1-4 EEL =      -183.3282  VDWAALS    =     -1841.8421
 EELEC  =      -664.1227  EHBOND  =         0.0000  RESTRAINT  =         0.0000
 EKCMT  =       508.3896  VIRIAL  =      1092.4871  VOLUME     =     96755.1323
                                                    Density    =         0.8141
 ------------------------------------------------------------------------------

      A V E R A G E S   O V E R     600 S T E P S

 NSTEP =    30000   TIME(PS) =      30.000  TEMP(K) =   300.52  PRESS =  -287.9
 Etot   =       460.2188  EKtot   =      2162.4373  EPtot      =     -1702.2185
 BOND   =       334.5987  ANGLE   =       951.0534  DIHED      =         0.0000
 1-4 NB =        -0.0985  1-4 EEL =      -182.9146  VDWAALS    =     -2105.0626
 EELEC  =      -700.6633  EHBOND  =         0.0000  RESTRAINT  =         0.8683
 EAMBER (non-restraint)  =     -1703.0868
 EKCMT  =       499.3768  VIRIAL  =       998.0922  VOLUME     =     80189.4724
                                                    Density    =         0.9954
 ------------------------------------------------------------------------------

      R M S  F L U C T U A T I O N S

 NSTEP =    30000   TIME(PS) =      30.000  TEMP(K) =     4.86  PRESS =   106.7
 Etot   =       199.4729  EKtot   =        35.0065  EPtot      =       198.6711
 BOND   =        14.0303  ANGLE   =        24.0276  DIHED      =         0.0000
 1-4 NB =         0.0142  1-4 EEL =         2.6024  VDWAALS    =       159.8321
 EELEC  =        37.4190  EHBOND  =         0.0000  RESTRAINT  =         0.6842
 EAMBER (non-restraint)  =       197.9869
 EKCMT  =        16.1954  VIRIAL  =       190.5424  VOLUME     =      9213.1138
                                                    Density    =         0.1148
 ------------------------------------------------------------------------------
