-------------------------------------------------------
          Amber 20 PMEMD                              2020
          -------------------------------------------------------

  [-O]verwriting output

File Assignments:

 Here is the input file:

pressure equilibration
&cntrl
	ntb=2,ntp=1,pres0=1.0,tautp=2.0,
	ntc=2,ntf=2,ntt=3,gamma_ln=2.0,
	tempi=300.0,temp0=300.0,
	ntr=1,restraint_wt=1000.0,restraintmask="!@H=&:1",
	nstlim=70000,dt=0.001,
/

Note: ig = -1. Setting random seed to   504686 based on wallclock time in
      microseconds.

--------------------------------------------------------------------------------
   1.  RESOURCE   USE:
--------------------------------------------------------------------------------

 getting box info from netcdf restart file
 NATOM  =    2786 NTYPES =       6 NBONH =    1116 MBONA  =    1114
 NTHETH =    2787 MTHETA =     561 NPHIH =      18 MPHIA  =       0
 NHPARM =       0 NPARM  =       0 NNB   =    6152 NRES   =     560
 NBONA  =    1114 NTHETA =     561 NPHIA =       0 NUMBND =       8
 NUMANG =      13 NPTRA  =       1 NATYP =       9 NPHB   =       0
 IFBOX  =       1 NMXRS  =       5 IFCAP =       0 NEXTRA =       0
 NCOPY  =       0

     BOX TYPE: RECTILINEAR

--------------------------------------------------------------------------------
   2.  CONTROL  DATA  FOR  THE  RUN
--------------------------------------------------------------------------------

default_name

General flags:
     imin    =       0, nmropt  =       0

Nature and format of input:
     ntx     =       1, irest   =       0, ntrx    =       1

Nature and format of output:
     ntxo    =       2, ntpr    =      50, ntrx    =       1, ntwr    =   70000
     iwrap   =       0, ntwx    =       0, ntwv    =       0, ntwe    =       0
     ioutfm  =       1, ntwprt  =       0, idecomp =       0, rbornstat=      0

Potential function:
     ntf     =       2, ntb     =       2, igb     =       0, nsnb    =      25
     ipol    =       0, gbsa    =       0, iesp    =       0
     dielc   =   1.00000, cut     =   8.00000, intdiel =   1.00000

Frozen or restrained atoms:
     ibelly  =       0, ntr     =       1
     restraint_wt =1000.00000

Molecular dynamics:
     nstlim  =     70000, nscm    =         0, nrespa  =         1
     t       =   0.00000, dt      =   0.00100, vlimit  =  -1.00000

Langevin dynamics temperature regulation:
     ig      =  504686
     temp0   = 300.00000, tempi   = 300.00000, gamma_ln=   2.00000

Pressure regulation:
     ntp     =       1
     pres0   =   1.00000, comp    =  44.60000, taup    =   1.00000

SHAKE:
     ntc     =       2, jfastw  =       0
     tol     =   0.00001

Ewald parameters:
     verbose =       0, ew_type =       0, nbflag  =       1, use_pme =       1
     vdwmeth =       1, eedmeth =       1, netfrc  =       1
     Box X =   38.810   Box Y =   39.177   Box Z =   43.248
     Alpha =   90.000   Beta  =   90.000   Gamma =   90.000
     NFFT1 =   40       NFFT2 =   40       NFFT3 =   48
     Cutoff=    8.000   Tol   =0.100E-04
     Ewald Coefficient =  0.34864
     Interpolation order =    4

    LOADING THE CONSTRAINED ATOMS AS GROUPS

   5.  REFERENCE ATOM COORDINATES

  default_name
     Mask !@H=&:1; matches     1 atoms

--------------------------------------------------------------------------------
   3.  ATOMIC COORDINATES AND VELOCITIES
--------------------------------------------------------------------------------

default_name
 begin time read from input coords =    30.000 ps

 Number of triangulated 3-point waters found:        0

     Sum of charges from parm topology file =  -0.00000070
     Forcing neutrality...

--------------------------------------------------------------------------------
   4.  RESULTS
 NSTEP =        0   TIME(PS) =       0.000  TEMP(K) =   341.25  PRESS =  -228.8
 Etot   =       434.5430  EKtot   =      2455.5330  EPtot      =     -2020.9900
 BOND   =       313.4866  ANGLE   =       953.8471  DIHED      =         0.0000
 1-4 NB =        -0.0988  1-4 EEL =      -184.1326  VDWAALS    =     -2380.9992
 EELEC  =      -723.0932  EHBOND  =         0.0000  RESTRAINT  =         0.0000
 EKCMT  =       508.9697  VIRIAL  =       833.8724  VOLUME     =     65757.4214
                                                    Density    =         1.1978
 ------------------------------------------------------------------------------

      A V E R A G E S   O V E R    1400 S T E P S

 NSTEP =    70000   TIME(PS) =      70.000  TEMP(K) =   299.88  PRESS =   -16.3
 Etot   =       -41.3704  EKtot   =      2157.7986  EPtot      =     -2199.1690
 BOND   =       335.8614  ANGLE   =       948.7707  DIHED      =         0.0000
 1-4 NB =        -0.0999  1-4 EEL =      -182.8719  VDWAALS    =     -2504.9126
 EELEC  =      -796.8341  EHBOND  =         0.0000  RESTRAINT  =         0.9174
 EAMBER (non-restraint)  =     -2200.0865
 EKCMT  =       496.8524  VIRIAL  =       519.3884  VOLUME     =     62250.8150
                                                    Density    =         1.2655
 ------------------------------------------------------------------------------

      R M S  F L U C T U A T I O N S

 NSTEP =    70000   TIME(PS) =      70.000  TEMP(K) =     4.89  PRESS =   134.2
 Etot   =        55.1488  EKtot   =        35.1806  EPtot      =        43.9276
 BOND   =        14.4845  ANGLE   =        23.0414  DIHED      =         0.0000
 1-4 NB =         0.0163  1-4 EEL =         2.7752  VDWAALS    =        28.7537
 EELEC  =        14.6436  EHBOND  =         0.0000  RESTRAINT  =         0.7044
 EAMBER (non-restraint)  =        43.2232
 EKCMT  =        16.1519  VIRIAL  =       181.8106  VOLUME     =       645.1426
                                                    Density    =         0.0127
 ------------------------------------------------------------------------------
