-------------------------------------------------------
          Amber 20 PMEMD                              2020
          -------------------------------------------------------

  [-O]verwriting output

File Assignments:

 Here is the input file:

pressure equilibration
&cntrl
	ntb=2,ntp=1,pres0=1.0,tautp=2.0,
	ntc=2,ntf=2,ntt=3,gamma_ln=2.0,
	tempi=300.0,temp0=300.0,
	nstlim=50000,dt=0.001,
/

Note: ig = -1. Setting random seed to    58111 based on wallclock time in
      microseconds.

--------------------------------------------------------------------------------
   1.  RESOURCE   USE:
--------------------------------------------------------------------------------

 getting box info from netcdf restart file
 NATOM  =    2786 NTYPES =       6 NBONH =    1116 MBONA  =    1114
 NTHETH =    2787 MTHETA =     561 NPHIH =      18 MPHIA  =       0
 NHPARM =       0 NPARM  =       0 NNB   =    6152 NRES   =     560
 NBONA  =    1114 NTHETA =     561 NPHIA =       0 NUMBND =       8
 NUMANG =      13 NPTRA  =       1 NATYP =       9 NPHB   =       0
 IFBOX  =       1 NMXRS  =       5 IFCAP =       0 NEXTRA =       0
 NCOPY  =       0

     BOX TYPE: RECTILINEAR

--------------------------------------------------------------------------------
   2.  CONTROL  DATA  FOR  THE  RUN
--------------------------------------------------------------------------------

default_name

General flags:
     imin    =       0, nmropt  =       0

Nature and format of input:
     ntx     =       1, irest   =       0, ntrx    =       1

Nature and format of output:
     ntxo    =       2, ntpr    =      50, ntrx    =       1, ntwr    =   50000
     iwrap   =       0, ntwx    =       0, ntwv    =       0, ntwe    =       0
     ioutfm  =       1, ntwprt  =       0, idecomp =       0, rbornstat=      0

Potential function:
     ntf     =       2, ntb     =       2, igb     =       0, nsnb    =      25
     ipol    =       0, gbsa    =       0, iesp    =       0
     dielc   =   1.00000, cut     =   8.00000, intdiel =   1.00000

Frozen or restrained atoms:
     ibelly  =       0, ntr     =       0

Molecular dynamics:
     nstlim  =     50000, nscm    =      1000, nrespa  =         1
     t       =   0.00000, dt      =   0.00100, vlimit  =  -1.00000

Langevin dynamics temperature regulation:
     ig      =   58111
     temp0   = 300.00000, tempi   = 300.00000, gamma_ln=   2.00000

Pressure regulation:
     ntp     =       1
     pres0   =   1.00000, comp    =  44.60000, taup    =   1.00000

SHAKE:
     ntc     =       2, jfastw  =       0
     tol     =   0.00001

Ewald parameters:
     verbose =       0, ew_type =       0, nbflag  =       1, use_pme =       1
     vdwmeth =       1, eedmeth =       1, netfrc  =       1
     Box X =   38.078   Box Y =   38.439   Box Z =   42.433
     Alpha =   90.000   Beta  =   90.000   Gamma =   90.000
     NFFT1 =   40       NFFT2 =   40       NFFT3 =   48
     Cutoff=    8.000   Tol   =0.100E-04
     Ewald Coefficient =  0.34864
     Interpolation order =    4

--------------------------------------------------------------------------------
   3.  ATOMIC COORDINATES AND VELOCITIES
--------------------------------------------------------------------------------

default_name
 begin time read from input coords =   200.000 ps

 Number of triangulated 3-point waters found:        0

     Sum of charges from parm topology file =  -0.00000070
     Forcing neutrality...

--------------------------------------------------------------------------------
   4.  RESULTS
 NSTEP =        0   TIME(PS) =       0.000  TEMP(K) =   343.33  PRESS =  -257.5
 Etot   =       271.7468  EKtot   =      2470.5085  EPtot      =     -2198.7617
 BOND   =       344.5632  ANGLE   =       963.9846  DIHED      =         0.0000
 1-4 NB =        -0.1119  1-4 EEL =      -185.0757  VDWAALS    =     -2532.2868
 EELEC  =      -789.8351  EHBOND  =         0.0000  RESTRAINT  =         0.0000
 EKCMT  =       488.5901  VIRIAL  =       833.9011  VOLUME     =     62107.9461
                                                    Density    =         1.2682
 ------------------------------------------------------------------------------

      A V E R A G E S   O V E R    1000 S T E P S

 NSTEP =    50000   TIME(PS) =      50.000  TEMP(K) =   299.33  PRESS =    -0.3
 Etot   =       -59.6651  EKtot   =      2153.8415  EPtot      =     -2213.5066
 BOND   =       334.4664  ANGLE   =       946.4402  DIHED      =         0.0000
 1-4 NB =        -0.0987  1-4 EEL =      -182.8323  VDWAALS    =     -2513.2467
 EELEC  =      -798.2355  EHBOND  =         0.0000  RESTRAINT  =         0.0000
 EKCMT  =       496.9691  VIRIAL  =       497.2992  VOLUME     =     62049.4330
                                                    Density    =         1.2694
 ------------------------------------------------------------------------------

      R M S  F L U C T U A T I O N S

 NSTEP =    50000   TIME(PS) =      50.000  TEMP(K) =     4.80  PRESS =   138.4
 Etot   =        48.1016  EKtot   =        34.5457  EPtot      =        34.7002
 BOND   =        14.0013  ANGLE   =        22.2777  DIHED      =         0.0000
 1-4 NB =         0.0160  1-4 EEL =         2.7083  VDWAALS    =        18.4364
 EELEC  =        13.9002  EHBOND  =         0.0000  RESTRAINT  =         0.0000
 EKCMT  =        16.1114  VIRIAL  =       185.8392  VOLUME     =       191.8603
                                                    Density    =         0.0039
 ------------------------------------------------------------------------------
